16
Energy = 0.00 kcal/mol
N    -2.936310 0.167135 -0.230110
C    -1.531159 0.501797 -0.286934
C    -0.657344 -0.268275 0.721713
O    0.699171 0.161705 0.669931
C    1.486729 -0.405703 -0.253886
C    2.874619 0.174688 -0.196498
O    1.121737 -1.266391 -1.008915
H    -3.309493 0.341223 0.697172
H    -3.076928 -0.813931 -0.445634
H    -1.170842 0.289913 -1.296943
H    -1.426165 1.574043 -0.099606
H    -0.987540 -0.074978 1.746143
H    -0.704075 -1.343208 0.510588
H    3.292500 0.016053 0.794385
H    2.824711 1.245746 -0.375678
H    3.500389 -0.299817 -0.945728
